/*--------------------------------*- C++ -*----------------------------------*\
  =========                 |
  \\      /  F ield         | OpenFOAM: The Open Source CFD Toolbox
   \\    /   O peration     | Website:  https://openfoam.org
    \\  /    A nd           | Version:  10
     \\/     M anipulation  |
\*---------------------------------------------------------------------------*/
FoamFile
{
    format      ascii;
    class       dictionary;
    object      fvSchemes;
}
// * * * * * * * * * * * * * * * * * * * * * * * * * * * * * * * * * * * * * //

ddtSchemes
{
    default         backward;
}

gradSchemes
{
    default         Gauss linear;

    limited         cellLimited Gauss linear 1;
    grad(U)         $limited;
    grad(k)         $limited;
    grad(omega)     $limited;
}

divSchemes
{

    default         none;


    div(phi,U)      Gauss GammaV 0.3;
    div(phid,p)     Gauss Gamma 0.3;
    div(phi,h)      Gauss linear;
    div(phi,K)      Gauss linear; 
    div(((rho*nuEff)*dev2(T(grad(U))))) Gauss linear;
    div(phi,Yi_h)   Gauss Gamma 1;
    div(meshPhi,p)   Gauss linear;
    div(phic,Yi) Gauss linear;

}

laplacianSchemes
{

     default         Gauss linear limited corrected 0.5;
}

interpolationSchemes
{
    default         linear;
}

snGradSchemes
{
     default         limited corrected 0.5;
}

wallDist
{
    method meshWave;
}

// ************************************************************************* //
