/*--------------------------------*- C++ -*----------------------------------*\
| =========                 |                                                 |
| \\      /  F ield         | OpenFOAM: The Open Source CFD Toolbox           |
|  \\    /   O peration     | Version:  v2412                                 |
|   \\  /    A nd           | Website:  www.openfoam.com                      |
|    \/     M anipulation  |                                                 |
\*---------------------------------------------------------------------------*/
FoamFile
{
    version     2.0;
    format      ascii;
    class       dictionary;
    object      thermo.compressibleGas;
}
// * * * * * * * * * * * * * * * * * * * * * * * * * * * * * * * * * * * * * //

AC3H5OOH
{
    specie
    {
        molWeight       74.0790;
    }
    elements
    {
        C       3;
        H       6;
        O       2;
    }
    thermodynamics
    {
        Tlow            298;
        Thigh           3500;
        Tcommon         1800;
        highCpCoeffs    ( 1.36958e+01 1.27113e-02 -4.21186e-06 6.49030e-10 -3.94931e-14 -1.11479e+04 -4.31791e+01 );
        lowCpCoeffs     ( 4.22355e+00 3.37607e-02 -2.17530e-05 3.00000e+00 7.14575e-09 -9.41816e-13 -7.73794e+03 );
    }
    transport
    {
        As              1.67212e-06;
        Ts              170.672;
    }
}

AC4H7OOH
{
    specie
    {
        molWeight       88.1060;
    }
    elements
    {
        C       4;
        H       8;
        O       2;
    }
    thermodynamics
    {
        Tlow            300;
        Thigh           3500;
        Tcommon         1660;
        highCpCoeffs    ( 1.22738e+01 2.55483e-02 -9.81265e-06 1.82079e-09 -1.35040e-13 -1.24526e+04 -3.36837e+01 );
        lowCpCoeffs     ( 1.60151e+00 5.12648e-02 -3.30504e-05 3.00000e+00 1.11532e-08 -1.54052e-12 -8.90939e+03 );
    }
    transport
    {
        As              1.67212e-06;
        Ts              170.672;
    }
}

AR
{
    specie
    {
        molWeight       2.0000;
    }
    thermodynamics
    {
        Tlow            200;
        Thigh           3500;
        Tcommon         820;
        highCpCoeffs    ( 2.50014e+00 -3.98290e-07 3.45886e-10 -1.18294e-13 1.38553e-17 -7.45408e+02 4.37897e+00 );
        lowCpCoeffs     ( 2.49974e+00 1.52569e-06 -3.17359e-09 3.00000e+00 2.74307e-12 -8.58512e-16 -7.45343e+02 );
    }
    transport
    {
        As              1.67212e-06;
        Ts              170.672;
    }
}

C
{
    specie
    {
        molWeight       12.0110;
    }
    elements
    {
        C       1;
    }
    thermodynamics
    {
        Tlow            200;
        Thigh           3500;
        Tcommon         700;
        highCpCoeffs    ( 2.49473e+00 3.92839e-05 -6.70015e-08 3.71819e-11 -5.07307e-15 8.54504e+04 4.79314e+00 );
        lowCpCoeffs     ( 2.54495e+00 -2.47725e-04 5.48018e-07 3.00000e+00 -5.48551e-10 2.04117e-13 8.54434e+04 );
    }
    transport
    {
        As              1.67212e-06;
        Ts              170.672;
    }
}

C10H8
{
    specie
    {
        molWeight       128.1740;
    }
    elements
    {
        C       10;
        H       8;
    }
    thermodynamics
    {
        Tlow            300;
        Thigh           3500;
        Tcommon         1370;
        highCpCoeffs    ( 1.51185e+01 3.89676e-02 -1.78249e-05 3.92092e-09 -3.39216e-13 1.01122e+04 -6.09041e+01 );
        lowCpCoeffs     ( -8.71832e+00 1.08564e-01 -9.40254e-05 3.00000e+00 4.10015e-08 -7.10574e-12 1.66434e+04 );
    }
    transport
    {
        As              1.67212e-06;
        Ts              170.672;
    }
}

C2H
{
    specie
    {
        molWeight       25.0300;
    }
    elements
    {
        C       2;
        H       1;
    }
    thermodynamics
    {
        Tlow            300;
        Thigh           3500;
        Tcommon         1710;
        highCpCoeffs    ( 3.41788e+00 4.21329e-03 -1.58937e-06 2.68739e-10 -1.73346e-14 6.72874e+04 5.32512e+00 );
        lowCpCoeffs     ( 4.60874e+00 1.42767e-03 8.54159e-07 3.00000e+00 -6.83903e-10 1.21941e-13 6.68802e+04 );
    }
    transport
    {
        As              1.67212e-06;
        Ts              170.672;
    }
}

C2H2
{
    specie
    {
        molWeight       26.0380;
    }
    elements
    {
        C       2;
        H       2;
    }
    thermodynamics
    {
        Tlow            300;
        Thigh           3500;
        Tcommon         790;
        highCpCoeffs    ( 4.37267e+00 5.47213e-03 -2.03182e-06 3.75019e-10 -2.77049e-14 2.58627e+04 -2.43836e+00 );
        lowCpCoeffs     ( 7.70537e-01 2.37108e-02 -3.66622e-05 3.00000e+00 2.95990e-08 -9.27579e-12 2.64318e+04 );
    }
    transport
    {
        As              1.67212e-06;
        Ts              170.672;
    }
}

C2H3
{
    specie
    {
        molWeight       27.0460;
    }
    elements
    {
        C       2;
        H       3;
    }
    thermodynamics
    {
        Tlow            300;
        Thigh           3500;
        Tcommon         1450;
        highCpCoeffs    ( 4.18728e+00 7.47582e-03 -2.58984e-06 4.05266e-10 -2.35023e-14 3.38404e+04 1.51959e+00 );
        lowCpCoeffs     ( 1.23421e+00 1.56222e-02 -1.10172e-05 3.00000e+00 4.27989e-09 -6.91542e-13 3.46968e+04 );
    }
    transport
    {
        As              1.67212e-06;
        Ts              170.672;
    }
}

C2H3CHO
{
    specie
    {
        molWeight       56.0640;
    }
    elements
    {
        C       3;
        H       4;
        O       1;
    }
    thermodynamics
    {
        Tlow            300;
        Thigh           3500;
        Tcommon         1600;
        highCpCoeffs    ( 9.22598e+00 1.12038e-02 -3.67974e-06 5.08180e-10 -2.25803e-14 -1.23719e+04 -2.08138e+01 );
        lowCpCoeffs     ( 8.18908e-01 3.22215e-02 -2.33838e-05 3.00000e+00 8.71821e-09 -1.30540e-12 -9.68169e+03 );
    }
    transport
    {
        As              1.67212e-06;
        Ts              170.672;
    }
}

C2H3O1-2
{
    specie
    {
        molWeight       43.0450;
    }
    elements
    {
        C       2;
        H       3;
        O       1;
    }
    thermodynamics
    {
        Tlow            200;
        Thigh           3500;
        Tcommon         1800;
        highCpCoeffs    ( 7.60994e+00 6.11301e-03 -1.59367e-06 1.28294e-10 2.98968e-15 1.61313e+04 -1.70585e+01 );
        lowCpCoeffs     ( 7.34198e-02 2.28608e-02 -1.55502e-05 3.00000e+00 5.29737e-09 -7.14938e-13 1.88445e+04 );
    }
    transport
    {
        As              1.67212e-06;
        Ts              170.672;
    }
}

C2H4
{
    specie
    {
        molWeight       28.0540;
    }
    elements
    {
        C       2;
        H       4;
    }
    thermodynamics
    {
        Tlow            300;
        Thigh           3500;
        Tcommon         1650;
        highCpCoeffs    ( 4.60403e+00 9.50595e-03 -3.15129e-06 4.53052e-10 -2.23949e-14 3.97229e+03 -3.77421e+00 );
        lowCpCoeffs     ( -6.02932e-02 2.08134e-02 -1.34308e-05 3.00000e+00 4.60638e-09 -6.51687e-13 5.51152e+03 );
    }
    transport
    {
        As              1.67212e-06;
        Ts              170.672;
    }
}

C2H4O1-2
{
    specie
    {
        molWeight       44.0530;
    }
    elements
    {
        C       2;
        H       4;
        O       1;
    }
    thermodynamics
    {
        Tlow            300;
        Thigh           3500;
        Tcommon         1520;
        highCpCoeffs    ( 6.04216e+00 1.11434e-02 -3.80167e-06 5.65227e-10 -2.94248e-14 -9.44152e+03 -1.02353e+01 );
        lowCpCoeffs     ( -2.19673e+00 3.28246e-02 -2.51977e-05 3.00000e+00 9.94944e-09 -1.57288e-12 -6.93689e+03 );
    }
    transport
    {
        As              1.67212e-06;
        Ts              170.672;
    }
}

C2H4O2H
{
    specie
    {
        molWeight       61.0600;
    }
    elements
    {
        C       2;
        H       5;
        O       2;
    }
    thermodynamics
    {
        Tlow            300;
        Thigh           3500;
        Tcommon         1440;
        highCpCoeffs    ( 9.66418e+00 1.29483e-02 -4.44318e-06 6.83406e-10 -3.84804e-14 1.86599e+03 -2.38806e+01 );
        lowCpCoeffs     ( 2.23212e+00 3.35929e-02 -2.59480e-05 3.00000e+00 1.06393e-08 -1.76694e-12 4.00642e+03 );
    }
    transport
    {
        As              1.67212e-06;
        Ts              170.672;
    }
}

C2H5
{
    specie
    {
        molWeight       29.0620;
    }
    elements
    {
        C       2;
        H       5;
    }
    thermodynamics
    {
        Tlow            300;
        Thigh           3500;
        Tcommon         1800;
        highCpCoeffs    ( 5.19791e+00 1.11043e-02 -3.71282e-06 5.47666e-10 -2.89413e-14 1.17176e+04 -4.91383e+00 );
        lowCpCoeffs     ( 6.75422e-01 2.11543e-02 -1.20878e-05 3.00000e+00 3.64951e-09 -4.59753e-13 1.33457e+04 );
    }
    transport
    {
        As              1.67212e-06;
        Ts              170.672;
    }
}

C2H5CHO
{
    specie
    {
        molWeight       58.0800;
    }
    elements
    {
        C       3;
        H       6;
        O       1;
    }
    thermodynamics
    {
        Tlow            300;
        Thigh           3500;
        Tcommon         1710;
        highCpCoeffs    ( 9.33265e+00 1.46861e-02 -4.56012e-06 5.69518e-10 -1.90908e-14 -2.69165e+04 -2.52386e+01 );
        lowCpCoeffs     ( -9.86883e-02 3.67477e-02 -2.39124e-05 3.00000e+00 8.11427e-09 -1.12212e-12 -2.36910e+04 );
    }
    transport
    {
        As              1.67212e-06;
        Ts              170.672;
    }
}

C2H5O
{
    specie
    {
        molWeight       45.0610;
    }
    elements
    {
        C       2;
        H       5;
        O       1;
    }
    thermodynamics
    {
        Tlow            300;
        Thigh           3500;
        Tcommon         700;
        highCpCoeffs    ( 1.68957e+00 2.35454e-02 -1.23415e-05 3.08912e-09 -2.98017e-13 -3.10348e+03 1.69411e+01 );
        lowCpCoeffs     ( 3.27853e+00 1.44656e-02 7.11509e-06 3.00000e+00 -1.54410e-08 6.31988e-12 -3.32593e+03 );
    }
    transport
    {
        As              1.67212e-06;
        Ts              170.672;
    }
}

C2H5O2
{
    specie
    {
        molWeight       61.0600;
    }
    elements
    {
        C       2;
        H       5;
        O       2;
    }
    thermodynamics
    {
        Tlow            300;
        Thigh           3500;
        Tcommon         1480;
        highCpCoeffs    ( 9.29920e+00 1.29335e-02 -4.54029e-06 7.01328e-10 -3.92078e-14 -7.64002e+03 -2.14312e+01 );
        lowCpCoeffs     ( 2.00183e-01 3.75254e-02 -2.94645e-05 3.00000e+00 1.19285e-08 -1.93568e-12 -4.94672e+03 );
    }
    transport
    {
        As              1.67212e-06;
        Ts              170.672;
    }
}

C2H5O2H
{
    specie
    {
        molWeight       62.0680;
    }
    elements
    {
        C       2;
        H       6;
        O       2;
    }
    thermodynamics
    {
        Tlow            300;
        Thigh           3500;
        Tcommon         1450;
        highCpCoeffs    ( 1.00877e+01 1.40222e-02 -4.79128e-06 7.15474e-10 -3.78164e-14 -2.40669e+04 -2.56734e+01 );
        lowCpCoeffs     ( -5.77205e-01 4.34425e-02 -3.52261e-05 3.00000e+00 1.47085e-08 -2.45041e-12 -2.09741e+04 );
    }
    transport
    {
        As              1.67212e-06;
        Ts              170.672;
    }
}

C2H5OH
{
    specie
    {
        molWeight       46.0690;
    }
    elements
    {
        C       2;
        H       6;
        O       1;
    }
    thermodynamics
    {
        Tlow            300;
        Thigh           3500;
        Tcommon         1580;
        highCpCoeffs    ( 7.32491e+00 1.39763e-02 -4.67367e-06 6.82064e-10 -3.47025e-14 -3.18910e+04 -1.38313e+01 );
        lowCpCoeffs     ( -4.22291e-01 3.35895e-02 -2.32938e-05 3.00000e+00 8.53864e-09 -1.27783e-12 -2.94428e+04 );
    }
    transport
    {
        As              1.67212e-06;
        Ts              170.672;
    }
}

C2H6
{
    specie
    {
        molWeight       30.0700;
    }
    elements
    {
        C       2;
        H       6;
    }
    thermodynamics
    {
        Tlow            300;
        Thigh           3500;
        Tcommon         1800;
        highCpCoeffs    ( 4.07959e+00 1.57445e-02 -5.96197e-06 1.06867e-09 -7.61012e-14 -1.25948e+04 -1.43089e+00 );
        lowCpCoeffs     ( -2.41779e-01 2.53476e-02 -1.39645e-05 3.00000e+00 4.03257e-09 -4.87754e-13 -1.10391e+04 );
    }
    transport
    {
        As              1.67212e-06;
        Ts              170.672;
    }
}

C2N2
{
    specie
    {
        molWeight       52.0360;
    }
    elements
    {
        C       2;
        N       2;
    }
    thermodynamics
    {
        Tlow            200;
        Thigh           3500;
        Tcommon         700;
        highCpCoeffs    ( 5.66789e+00 5.81682e-03 -2.89263e-06 6.98369e-10 -6.54525e-14 3.52446e+04 -4.84946e+00 );
        lowCpCoeffs     ( 2.74684e+00 2.25085e-02 -3.86606e-05 3.00000e+00 3.47631e-08 -1.22314e-11 3.56535e+04 );
    }
    transport
    {
        As              1.67212e-06;
        Ts              170.672;
    }
}

C3H2
{
    specie
    {
        molWeight       38.0490;
    }
    elements
    {
        C       3;
        H       2;
    }
    thermodynamics
    {
        Tlow            300;
        Thigh           3500;
        Tcommon         1260;
        highCpCoeffs    ( 6.42043e+00 6.05129e-03 -2.30888e-06 4.10632e-10 -2.84293e-14 6.08598e+04 -8.32404e+00 );
        lowCpCoeffs     ( 2.15398e+00 1.95956e-02 -1.84330e-05 3.00000e+00 8.94193e-09 -1.72115e-12 6.19350e+04 );
    }
    transport
    {
        As              1.67212e-06;
        Ts              170.672;
    }
}

C3H3
{
    specie
    {
        molWeight       39.0570;
    }
    elements
    {
        C       3;
        H       3;
    }
    thermodynamics
    {
        Tlow            300;
        Thigh           3500;
        Tcommon         840;
        highCpCoeffs    ( 5.75058e+00 1.05636e-02 -4.84061e-06 1.09040e-09 -9.80036e-14 4.00565e+04 -5.04125e+00 );
        lowCpCoeffs     ( 1.75584e+00 2.95861e-02 -3.88095e-05 3.00000e+00 2.80498e-08 -8.12163e-12 4.07277e+04 );
    }
    transport
    {
        As              1.67212e-06;
        Ts              170.672;
    }
}

C3H4-A
{
    specie
    {
        molWeight       40.0650;
    }
    elements
    {
        C       3;
        H       4;
    }
    thermodynamics
    {
        Tlow            300;
        Thigh           3500;
        Tcommon         1420;
        highCpCoeffs    ( 6.37608e+00 1.10282e-02 -3.89476e-06 6.16686e-10 -3.59565e-14 2.00918e+04 -1.13283e+01 );
        lowCpCoeffs     ( 5.08249e-01 2.75573e-02 -2.13551e-05 3.00000e+00 8.81402e-09 -1.47915e-12 2.17582e+04 );
    }
    transport
    {
        As              1.67212e-06;
        Ts              170.672;
    }
}

C3H4-P
{
    specie
    {
        molWeight       40.0650;
    }
    elements
    {
        C       3;
        H       4;
    }
    thermodynamics
    {
        Tlow            300;
        Thigh           3500;
        Tcommon         1570;
        highCpCoeffs    ( 6.45798e+00 1.06371e-02 -3.61162e-06 5.39413e-10 -2.85851e-14 1.94137e+04 -1.10771e+01 );
        lowCpCoeffs     ( 1.72714e+00 2.26902e-02 -1.51273e-05 3.00000e+00 5.42930e-09 -8.07230e-13 2.08992e+04 );
    }
    transport
    {
        As              1.67212e-06;
        Ts              170.672;
    }
}

C3H5-A
{
    specie
    {
        molWeight       41.0730;
    }
    elements
    {
        C       3;
        H       5;
    }
    thermodynamics
    {
        Tlow            298;
        Thigh           3500;
        Tcommon         1600;
        highCpCoeffs    ( 8.53878e+00 1.04612e-02 -3.15380e-06 3.85307e-10 -1.26414e-14 1.71766e+04 -2.28182e+01 );
        lowCpCoeffs     ( -3.57888e-01 3.27029e-02 -2.40054e-05 3.00000e+00 9.07346e-09 -1.37016e-12 2.00236e+04 );
    }
    transport
    {
        As              1.67212e-06;
        Ts              170.672;
    }
}

C3H5-S
{
    specie
    {
        molWeight       73.1330;
    }
    elements
    {
        C       3;
        H       5;
        S       1;
    }
    thermodynamics
    {
        Tlow            300;
        Thigh           3500;
        Tcommon         1800;
        highCpCoeffs    ( 6.52600e+00 1.37687e-02 -5.50691e-06 1.07278e-09 -8.39560e-14 2.86430e+04 -9.99636e+00 );
        lowCpCoeffs     ( 1.54228e+00 2.48436e-02 -1.47360e-05 3.00000e+00 4.49097e-09 -5.58704e-13 3.04371e+04 );
    }
    transport
    {
        As              1.67212e-06;
        Ts              170.672;
    }
}

C3H5-T
{
    specie
    {
        molWeight       41.0730;
    }
    elements
    {
        C       3;
        H       5;
    }
    thermodynamics
    {
        Tlow            300;
        Thigh           3500;
        Tcommon         770;
        highCpCoeffs    ( 1.49332e+00 2.33789e-02 -1.18551e-05 2.86552e-09 -2.68204e-13 2.87118e+04 1.76892e+01 );
        lowCpCoeffs     ( 2.52239e+00 1.80331e-02 -1.44115e-06 3.00000e+00 -6.15086e-09 2.65919e-12 2.85533e+04 );
    }
    transport
    {
        As              1.67212e-06;
        Ts              170.672;
    }
}

C3H5O
{
    specie
    {
        molWeight       57.0720;
    }
    elements
    {
        C       3;
        H       5;
        O       1;
    }
    thermodynamics
    {
        Tlow            300;
        Thigh           3500;
        Tcommon         1610;
        highCpCoeffs    ( 9.11080e+00 1.37590e-02 -5.15319e-06 9.32422e-10 -6.74696e-14 7.77376e+03 -2.10037e+01 );
        lowCpCoeffs     ( 9.27197e-01 3.40909e-02 -2.40960e-05 3.00000e+00 8.77623e-09 -1.28545e-12 1.04089e+04 );
    }
    transport
    {
        As              1.67212e-06;
        Ts              170.672;
    }
}

C3H5OH
{
    specie
    {
        molWeight       58.0800;
    }
    elements
    {
        C       3;
        H       6;
        O       1;
    }
    thermodynamics
    {
        Tlow            300;
        Thigh           3500;
        Tcommon         1630;
        highCpCoeffs    ( 9.39463e+00 1.51343e-02 -4.86246e-06 6.64177e-10 -2.94553e-14 -2.20582e+04 -2.45922e+01 );
        lowCpCoeffs     ( 4.73538e-01 3.70266e-02 -2.50087e-05 3.00000e+00 8.90395e-09 -1.29322e-12 -1.91499e+04 );
    }
    transport
    {
        As              1.67212e-06;
        Ts              170.672;
    }
}

C3H6
{
    specie
    {
        molWeight       42.0810;
    }
    elements
    {
        C       3;
        H       6;
    }
    thermodynamics
    {
        Tlow            298;
        Thigh           3500;
        Tcommon         1800;
        highCpCoeffs    ( 6.31755e+00 1.65820e-02 -6.59972e-06 1.29513e-09 -1.03784e-13 -3.79456e+02 -1.05616e+01 );
        lowCpCoeffs     ( -8.55987e-02 3.08112e-02 -1.84574e-05 3.00000e+00 5.68686e-09 -7.13748e-13 1.92568e+03 );
    }
    transport
    {
        As              1.67212e-06;
        Ts              170.672;
    }
}

C3H6O
{
    specie
    {
        molWeight       58.0800;
    }
    elements
    {
        C       3;
        H       6;
        O       1;
    }
    thermodynamics
    {
        Tlow            300;
        Thigh           3500;
        Tcommon         1550;
        highCpCoeffs    ( 9.00938e+00 1.57633e-02 -5.29374e-06 7.64253e-10 -3.74126e-14 -1.56670e+04 -2.44960e+01 );
        lowCpCoeffs     ( -1.88322e+00 4.38732e-02 -3.24969e-05 3.00000e+00 1.24645e-08 -1.92456e-12 -1.22902e+04 );
    }
    transport
    {
        As              1.67212e-06;
        Ts              170.672;
    }
}

C3H6OH1-2
{
    specie
    {
        molWeight       59.0880;
    }
    elements
    {
        C       3;
        H       7;
        O       1;
    }
    thermodynamics
    {
        Tlow            300;
        Thigh           3500;
        Tcommon         1800;
        highCpCoeffs    ( 8.46016e+00 1.89669e-02 -7.38014e-06 1.39190e-09 -1.05413e-13 -1.21582e+04 -1.51603e+01 );
        lowCpCoeffs     ( 4.08605e-01 3.68593e-02 -2.22904e-05 3.00000e+00 6.91423e-09 -8.72404e-13 -9.25961e+03 );
    }
    transport
    {
        As              1.67212e-06;
        Ts              170.672;
    }
}

C3H6OH2-1
{
    specie
    {
        molWeight       60.0960;
    }
    elements
    {
        C       3;
        H       8;
        O       1;
    }
    thermodynamics
    {
        Tlow            300;
        Thigh           3500;
        Tcommon         1590;
        highCpCoeffs    ( 8.99548e+00 1.75104e-02 -6.94615e-06 1.37004e-09 -1.07539e-13 -1.65436e+04 -1.93287e+01 );
        lowCpCoeffs     ( 1.31208e+00 3.68397e-02 -2.51814e-05 3.00000e+00 9.01583e-09 -1.30971e-12 -1.41003e+04 );
    }
    transport
    {
        As              1.67212e-06;
        Ts              170.672;
    }
}

C3H8
{
    specie
    {
        molWeight       44.0970;
    }
    elements
    {
        C       3;
        H       8;
    }
    thermodynamics
    {
        Tlow            300;
        Thigh           3500;
        Tcommon         1690;
        highCpCoeffs    ( 8.33847e+00 1.79341e-02 -5.80535e-06 7.91038e-10 -3.43401e-14 -1.70816e+04 -2.27462e+01 );
        lowCpCoeffs     ( -1.38651e+00 4.09518e-02 -2.62353e-05 3.00000e+00 8.85018e-09 -1.22652e-12 -1.37946e+04 );
    }
    transport
    {
        As              1.67212e-06;
        Ts              170.672;
    }
}

C4H2
{
    specie
    {
        molWeight       50.0600;
    }
    elements
    {
        C       4;
        H       2;
    }
    thermodynamics
    {
        Tlow            300;
        Thigh           3500;
        Tcommon         720;
        highCpCoeffs    ( 7.13415e+00 1.00526e-02 -4.84819e-06 1.14885e-09 -1.07723e-13 5.27578e+04 -1.36444e+01 );
        lowCpCoeffs     ( -4.34754e-01 5.21021e-02 -9.24512e-05 3.00000e+00 8.22628e-08 -2.82723e-11 5.38477e+04 );
    }
    transport
    {
        As              1.67212e-06;
        Ts              170.672;
    }
}

C4H3
{
    specie
    {
        molWeight       51.0680;
    }
    elements
    {
        C       4;
        H       3;
    }
    thermodynamics
    {
        Tlow            300;
        Thigh           3500;
        Tcommon         1590;
        highCpCoeffs    ( 1.30209e+01 1.53590e-03 1.80568e-06 -9.30237e-10 1.18077e-13 6.01812e+04 -4.25791e+01 );
        lowCpCoeffs     ( 2.34663e+00 2.83894e-02 -2.35278e-05 3.00000e+00 9.69178e-09 -1.55205e-12 6.35756e+04 );
    }
    transport
    {
        As              1.67212e-06;
        Ts              170.672;
    }
}

C4H4
{
    specie
    {
        molWeight       52.0760;
    }
    elements
    {
        C       4;
        H       4;
    }
    thermodynamics
    {
        Tlow            300;
        Thigh           3500;
        Tcommon         1290;
        highCpCoeffs    ( 7.65777e+00 1.26498e-02 -4.62249e-06 7.81217e-10 -5.07629e-14 3.13366e+04 -1.49693e+01 );
        lowCpCoeffs     ( 7.13120e-01 3.41836e-02 -2.96618e-05 3.00000e+00 1.37214e-08 -2.55856e-12 3.31283e+04 );
    }
    transport
    {
        As              1.67212e-06;
        Ts              170.672;
    }
}

C4H5
{
    specie
    {
        molWeight       53.0840;
    }
    elements
    {
        C       4;
        H       5;
    }
    thermodynamics
    {
        Tlow            300;
        Thigh           3500;
        Tcommon         1800;
        highCpCoeffs    ( 1.90193e+01 -1.91794e-03 4.88815e-06 -1.91834e-09 2.24139e-13 3.48593e+04 -7.70423e+01 );
        lowCpCoeffs     ( -2.01742e-01 4.07954e-02 -3.07063e-05 3.00000e+00 1.12648e-08 -1.60685e-12 4.17788e+04 );
    }
    transport
    {
        As              1.67212e-06;
        Ts              170.672;
    }
}

C4H6
{
    specie
    {
        molWeight       54.0920;
    }
    elements
    {
        C       4;
        H       6;
    }
    thermodynamics
    {
        Tlow            200;
        Thigh           3500;
        Tcommon         1800;
        highCpCoeffs    ( 9.30873e+00 1.50140e-02 -5.06688e-06 7.84148e-10 -4.70263e-14 8.60830e+03 -2.47390e+01 );
        lowCpCoeffs     ( 4.65225e-01 3.46662e-02 -2.14437e-05 3.00000e+00 6.84965e-09 -8.89457e-13 1.17920e+04 );
    }
    transport
    {
        As              1.67212e-06;
        Ts              170.672;
    }
}

C4H71-3
{
    specie
    {
        molWeight       119.6120;
    }
    elements
    {
        C       4;
        H       71;
    }
    thermodynamics
    {
        Tlow            300;
        Thigh           3500;
        Tcommon         1420;
        highCpCoeffs    ( 8.33018e+00 1.98467e-02 -6.37614e-06 5.28653e-10 3.81104e-14 1.19534e+04 -1.83767e+01 );
        lowCpCoeffs     ( -1.12550e+00 4.64824e-02 -3.45125e-05 3.00000e+00 1.37382e-08 -2.28751e-12 1.46388e+04 );
    }
    transport
    {
        As              1.67212e-06;
        Ts              170.672;
    }
}

C4H71-4
{
    specie
    {
        molWeight       119.6120;
    }
    elements
    {
        C       4;
        H       71;
    }
    thermodynamics
    {
        Tlow            300;
        Thigh           3500;
        Tcommon         1530;
        highCpCoeffs    ( 8.45917e+00 1.93969e-02 -5.99076e-06 3.82148e-10 5.73995e-14 1.98988e+04 -1.80213e+01 );
        lowCpCoeffs     ( -3.29329e-01 4.23733e-02 -2.85167e-05 3.00000e+00 1.01974e-08 -1.54640e-12 2.25881e+04 );
    }
    transport
    {
        As              1.67212e-06;
        Ts              170.672;
    }
}

C4H71-O
{
    specie
    {
        molWeight       135.6110;
    }
    elements
    {
        C       4;
        H       71;
        O       1;
    }
    thermodynamics
    {
        Tlow            300;
        Thigh           3500;
        Tcommon         1600;
        highCpCoeffs    ( 1.37372e+01 1.70983e-02 -6.55973e-06 1.21466e-09 -8.98270e-14 -3.28789e+01 -4.64106e+01 );
        lowCpCoeffs     ( -1.48201e+00 5.51463e-02 -4.22297e-05 3.00000e+00 1.60771e-08 -2.41209e-12 4.83726e+03 );
    }
    transport
    {
        As              1.67212e-06;
        Ts              170.672;
    }
}

C4H8-1
{
    specie
    {
        molWeight       56.1080;
    }
    elements
    {
        C       4;
        H       8;
    }
    thermodynamics
    {
        Tlow            300;
        Thigh           3500;
        Tcommon         1800;
        highCpCoeffs    ( 1.03330e+01 1.99470e-02 -7.40539e-06 1.30473e-09 -9.09598e-14 -5.56551e+03 -3.07722e+01 );
        lowCpCoeffs     ( -6.91490e-01 4.44460e-02 -2.78212e-05 3.00000e+00 8.86613e-09 -1.14116e-12 -1.59668e+03 );
    }
    transport
    {
        As              1.67212e-06;
        Ts              170.672;
    }
}

C4H8-2
{
    specie
    {
        molWeight       56.1080;
    }
    elements
    {
        C       4;
        H       8;
    }
    thermodynamics
    {
        Tlow            300;
        Thigh           3500;
        Tcommon         1800;
        highCpCoeffs    ( 5.15907e+00 2.89998e-02 -1.32975e-05 2.96139e-09 -2.60424e-13 -4.76705e+03 -3.39008e+00 );
        lowCpCoeffs     ( 5.60608e-01 3.92186e-02 -2.18131e-05 3.00000e+00 6.11534e-09 -6.98474e-13 -3.11160e+03 );
    }
    transport
    {
        As              1.67212e-06;
        Ts              170.672;
    }
}

C5H5
{
    specie
    {
        molWeight       65.0950;
    }
    elements
    {
        C       5;
        H       5;
    }
    thermodynamics
    {
        Tlow            300;
        Thigh           3500;
        Tcommon         700;
        highCpCoeffs    ( 4.01653e+00 2.68452e-02 -1.26423e-05 2.78092e-09 -2.35299e-13 2.91110e+04 1.44026e+00 );
        lowCpCoeffs     ( -2.58737e+00 6.45818e-02 -9.35064e-05 3.00000e+00 7.97943e-08 -2.77401e-11 3.00356e+04 );
    }
    transport
    {
        As              1.67212e-06;
        Ts              170.672;
    }
}

C5H6
{
    specie
    {
        molWeight       66.1030;
    }
    elements
    {
        C       5;
        H       6;
    }
    thermodynamics
    {
        Tlow            200;
        Thigh           3500;
        Tcommon         1630;
        highCpCoeffs    ( 1.35787e+01 1.28174e-02 -3.11962e-06 1.29368e-10 2.76959e-14 9.43771e+03 -5.26289e+01 );
        lowCpCoeffs     ( -4.05867e+00 5.60992e-02 -4.29495e-05 3.00000e+00 1.64197e-08 -2.47082e-12 1.51875e+04 );
    }
    transport
    {
        As              1.67212e-06;
        Ts              170.672;
    }
}

C6H5
{
    specie
    {
        molWeight       77.1060;
    }
    elements
    {
        C       6;
        H       5;
    }
    thermodynamics
    {
        Tlow            300;
        Thigh           3500;
        Tcommon         1390;
        highCpCoeffs    ( 1.12331e+01 1.77270e-02 -6.33616e-06 1.00237e-09 -5.75482e-14 3.49856e+04 -3.80076e+01 );
        lowCpCoeffs     ( -6.76261e+00 6.95133e-02 -6.22207e-05 3.00000e+00 2.78055e-08 -4.87825e-12 3.99884e+04 );
    }
    transport
    {
        As              1.67212e-06;
        Ts              170.672;
    }
}

C6H6
{
    specie
    {
        molWeight       78.1140;
    }
    elements
    {
        C       6;
        H       6;
    }
    thermodynamics
    {
        Tlow            300;
        Thigh           3500;
        Tcommon         1410;
        highCpCoeffs    ( 1.15056e+01 1.99961e-02 -7.07935e-06 1.10673e-09 -6.24179e-14 4.11452e+03 -4.24445e+01 );
        lowCpCoeffs     ( -6.99882e+00 7.24908e-02 -6.29248e-05 3.00000e+00 2.75112e-08 -4.74406e-12 9.33276e+03 );
    }
    transport
    {
        As              1.67212e-06;
        Ts              170.672;
    }
}

CH
{
    specie
    {
        molWeight       13.0190;
    }
    elements
    {
        C       1;
        H       1;
    }
    thermodynamics
    {
        Tlow            300;
        Thigh           3500;
        Tcommon         1590;
        highCpCoeffs    ( 2.27990e+00 2.16985e-03 -7.07638e-07 1.23973e-10 -9.56349e-15 7.11059e+04 8.77326e+00 );
        lowCpCoeffs     ( 3.77264e+00 -1.58547e-03 2.83512e-06 3.00000e+00 -1.36146e-09 2.23995e-13 7.06312e+04 );
    }
    transport
    {
        As              1.67212e-06;
        Ts              170.672;
    }
}

CH2
{
    specie
    {
        molWeight       14.0270;
    }