/*--------------------------------*- C++ -*----------------------------------*\
  =========                 |
  \\      /  F ield         | OpenFOAM: The Open Source CFD Toolbox
   \\    /   O peration     | Website:  https://openfoam.org
    \\  /    A nd           | Version:  8
     \\/     M anipulation  |
\*---------------------------------------------------------------------------*/
FoamFile
{
    version     2.0;
    format      ascii;
    class       dictionary;
    location    "system";
    object      fvSchemes;
}
// * * * * * * * * * * * * * * * * * * * * * * * * * * * * * * * * * * * * * //

ddtSchemes
{
    default         backward;
}

gradSchemes
{
    default         Gauss linear;
}

divSchemes
{
    default             none;

    div(phi,U)          Gauss limitedLinearV 0.1;
    div(phi,Yi)         Gauss limitedLinear01 0.1;
    div(phi,h)          Gauss limitedLinear 0.1;
    div(phi,K)          Gauss limitedLinear 0.1;
    div(phi,B)          Gauss limitedLinear 0.1;
    div(B)              Gauss upwind;
    div(phid,p)         Gauss limitedLinear 0.1;
    div(phi,epsilon)    Gauss limitedLinear 0.1;
    div(phi,omega)      Gauss limitedLinear 0.1;
    div(phi,Yi_h)       Gauss limitedLinear01 0.1;
    div(phi,nuTilda)    Gauss limitedLinear 0.1;
    div(phi,k)          Gauss limitedLinear 0.1;
    div(((rho*nuEff)*dev2(T(grad(U)))))     Gauss linear;
}

laplacianSchemes
{
    default         Gauss linear corrected;
}

interpolationSchemes
{
    default         linear;
}

snGradSchemes
{
    default         corrected;
}

wallDist
{

    method meshWave;
}



// ************************************************************************* //
