/*--------------------------------*- C++ -*----------------------------------*\
  =========                 |
  \\      /  F ield         | OpenFOAM: The Open Source CFD Toolbox
   \\    /   O peration     | Website:  https://openfoam.org
    \\  /    A nd           | Version:  8
     \\/     M anipulation  |
\*---------------------------------------------------------------------------*/
FoamFile
{
    version     2.0;
    format      ascii;
    class       dictionary;
    location    "system";
    object      fvSolution;
}
// * * * * * * * * * * * * * * * * * * * * * * * * * * * * * * * * * * * * * //

solvers
{
    "rho.*"
    {
        solver          diagonal;
    }

    p
    {
        solver           PCG;
        preconditioner   DIC;
        tolerance        1e-6;
        relTol           0.01;
    }

    pFinal
    {
        $p;
        relTol           0;
    }

    "(U|h|k|epsilon|omega)"
    {
        solver          PBiCGStab;
        preconditioner  DILU;
        tolerance       1e-6;
        relTol          0.1;
    }

    "(U|h|k|epsilon|omega)Final"
    {
        $U;
    }

    "Yi.*"
    {
        solver          PBiCG;
        preconditioner  DILU;
        tolerance       1e-8;
        relTol          0.1;
    }
    

}

PIMPLE
{
    momentumPredictor   yes;
    nOuterCorrectors    2;
    nCorrectors         3;
    nNonOrthogonalCorrectors 3;

    maxDeltaT           1e-4;
    maxCo               0.25;
    alphaTemp           0.05;
    alphaY              0.05;
    Yref
    {
        O2                  0.1;
        H2                  1;
    }
    rDeltaTSmoothingCoeff   0.05;
    rDeltaTDampingCoeff     1;
}

relaxationFactors
{
    equations
    {
        ".*"    0.5;
    }
}

// ************************************************************************* //
